# experiments/barotropic_eddy_island/v0/input/data.pkg
 &PACKAGES
 /